Circuit: * D:\kicad practice\spice simulation\cutoff_circuit.asc

Direct Newton iteration for .op point succeeded.

Date: Mon Jan 13 11:32:53 2025
Total elapsed time: 0.395 seconds.

tnom = 27
temp = 27
method = modified trap
totiter = 2121
traniter = 2088
tranpoints = 1045
accept = 1045
rejected = 0
matrix size = 15
fillins = 2
solver = Normal
Avg thread counts: 2.9/4.8/4.8/2.9
Matrix Compiler1: 1.04 KB object code size  1.3/0.8/[0.7]
Matrix Compiler2: 1.25 KB object code size  0.8/1.2/[0.4]

